<?xml version="1.0" encoding="UTF-8"?>

<!-- generated on 2026-03-06T02:33:22.182017+05:00 by Eclipse SUMO netgenerate 1.25.0
<netgenerateConfiguration xmlns:xsi="http://www.w3.org/2001/XMLSchema-instance" xsi:noNamespaceSchemaLocation="http://sumo.dlr.de/xsd/netgenerateConfiguration.xsd">

    <grid_network>
        <grid value="true"/>
        <grid.number value="1"/>
        <grid.attach-length value="200"/>
    </grid_network>

    <output>
        <output-file value="single.net.xml"/>
    </output>

    <building_defaults>
        <default-junction-type value="traffic_light"/>
    </building_defaults>

</netgenerateConfiguration>
-->

<net version="1.20" junctionCornerDetail="5" limitTurnSpeed="5.50" xmlns:xsi="http://www.w3.org/2001/XMLSchema-instance" xsi:noNamespaceSchemaLocation="http://sumo.dlr.de/xsd/net_file.xsd">

    <location netOffset="0.00,0.00" convBoundary="0.00,0.00,400.00,400.00" origBoundary="0.00,0.00,400.00,400.00" projParameter="!"/>

    <edge id=":A0_0" function="internal">
        <lane id=":A0_0_0" index="0" speed="6.51" length="9.03" shape="198.40,207.20 198.05,204.75 197.00,203.00 195.25,201.95 192.80,201.60"/>
    </edge>
    <edge id=":A0_1" function="internal">
        <lane id=":A0_1_0" index="0" speed="13.89" length="14.40" shape="198.40,207.20 198.40,192.80"/>
    </edge>
    <edge id=":A0_2" function="internal">
        <lane id=":A0_2_0" index="0" speed="8.00" length="4.07" shape="198.40,207.20 198.95,203.35 199.04,203.20"/>
    </edge>
    <edge id=":A0_3" function="internal">
        <lane id=":A0_3_0" index="0" speed="3.65" length="1.44" shape="198.40,207.20 199.20,206.00"/>
    </edge>
    <edge id=":A0_16" function="internal">
        <lane id=":A0_16_0" index="0" speed="8.00" length="10.13" shape="199.04,203.20 200.60,200.60 203.35,198.95 207.20,198.40"/>
    </edge>
    <edge id=":A0_17" function="internal">
        <lane id=":A0_17_0" index="0" speed="3.65" length="3.23" shape="199.20,206.00 200.00,205.60 200.80,206.00 201.60,207.20"/>
    </edge>
    <edge id=":A0_4" function="internal">
        <lane id=":A0_4_0" index="0" speed="6.51" length="9.03" shape="207.20,201.60 204.75,201.95 203.00,203.00 201.95,204.75 201.60,207.20"/>
    </edge>
    <edge id=":A0_5" function="internal">
        <lane id=":A0_5_0" index="0" speed="13.89" length="14.40" shape="207.20,201.60 192.80,201.60"/>
    </edge>
    <edge id=":A0_6" function="internal">
        <lane id=":A0_6_0" index="0" speed="8.00" length="4.07" shape="207.20,201.60 203.35,201.05 203.20,200.96"/>
    </edge>
    <edge id=":A0_7" function="internal">
        <lane id=":A0_7_0" index="0" speed="3.65" length="1.44" shape="207.20,201.60 206.00,200.80"/>
    </edge>
    <edge id=":A0_18" function="internal">
        <lane id=":A0_18_0" index="0" speed="8.00" length="10.13" shape="203.20,200.96 200.60,199.40 198.95,196.65 198.40,192.80"/>
    </edge>
    <edge id=":A0_19" function="internal">
        <lane id=":A0_19_0" index="0" speed="3.65" length="3.23" shape="206.00,200.80 205.60,200.00 206.00,199.20 207.20,198.40"/>
    </edge>
    <edge id=":A0_8" function="internal">
        <lane id=":A0_8_0" index="0" speed="6.51" length="9.03" shape="201.60,192.80 201.95,195.25 203.00,197.00 204.75,198.05 207.20,198.40"/>
    </edge>
    <edge id=":A0_9" function="internal">
        <lane id=":A0_9_0" index="0" speed="13.89" length="14.40" shape="201.60,192.80 201.60,207.20"/>
    </edge>
    <edge id=":A0_10" function="internal">
        <lane id=":A0_10_0" index="0" speed="8.00" length="4.07" shape="201.60,192.80 201.05,196.65 200.96,196.80"/>
    </edge>
    <edge id=":A0_11" function="internal">
        <lane id=":A0_11_0" index="0" speed="3.65" length="1.44" shape="201.60,192.80 200.80,194.00"/>
    </edge>
    <edge id=":A0_20" function="internal">
        <lane id=":A0_20_0" index="0" speed="8.00" length="10.13" shape="200.96,196.80 199.40,199.40 196.65,201.05 192.80,201.60"/>
    </edge>
    <edge id=":A0_21" function="internal">
        <lane id=":A0_21_0" index="0" speed="3.65" length="3.23" shape="200.80,194.00 200.00,194.40 199.20,194.00 198.40,192.80"/>
    </edge>
    <edge id=":A0_12" function="internal">
        <lane id=":A0_12_0" index="0" speed="6.51" length="9.03" shape="192.80,198.40 195.25,198.05 197.00,197.00 198.05,195.25 198.40,192.80"/>
    </edge>
    <edge id=":A0_13" function="internal">
        <lane id=":A0_13_0" index="0" speed="13.89" length="14.40" shape="192.80,198.40 207.20,198.40"/>
    </edge>
    <edge id=":A0_14" function="internal">
        <lane id=":A0_14_0" index="0" speed="8.00" length="4.07" shape="192.80,198.40 196.65,198.95 196.80,199.04"/>
    </edge>
    <edge id=":A0_15" function="internal">
        <lane id=":A0_15_0" index="0" speed="3.65" length="1.44" shape="192.80,198.40 194.00,199.20"/>
    </edge>
    <edge id=":A0_22" function="internal">
        <lane id=":A0_22_0" index="0" speed="8.00" length="10.13" shape="196.80,199.04 199.40,200.60 201.05,203.35 201.60,207.20"/>
    </edge>
    <edge id=":A0_23" function="internal">
        <lane id=":A0_23_0" index="0" speed="3.65" length="3.23" shape="194.00,199.20 194.40,200.00 194.00,200.80 192.80,201.60"/>
    </edge>
    <edge id=":bottom0_0" function="internal">
        <lane id=":bottom0_0_0" index="0" speed="3.65" length="4.67" shape="198.40,0.00 199.20,-1.20 200.00,-1.60 200.80,-1.20 201.60,0.00"/>
    </edge>
    <edge id=":left0_0" function="internal">
        <lane id=":left0_0_0" index="0" speed="3.65" length="4.67" shape="0.00,201.60 -1.20,200.80 -1.60,200.00 -1.20,199.20 0.00,198.40"/>
    </edge>
    <edge id=":right0_0" function="internal">
        <lane id=":right0_0_0" index="0" speed="3.65" length="4.67" shape="400.00,198.40 401.20,199.20 401.60,200.00 401.20,200.80 400.00,201.60"/>
    </edge>
    <edge id=":top0_0" function="internal">
        <lane id=":top0_0_0" index="0" speed="3.65" length="4.67" shape="201.60,400.00 200.80,401.20 200.00,401.60 199.20,401.20 198.40,400.00"/>
    </edge>

    <edge id="A0bottom0" from="A0" to="bottom0" priority="-1">
        <lane id="A0bottom0_0" index="0" speed="13.89" length="192.80" shape="198.40,192.80 198.40,0.00"/>
    </edge>
    <edge id="A0left0" from="A0" to="left0" priority="-1">
        <lane id="A0left0_0" index="0" speed="13.89" length="192.80" shape="192.80,201.60 0.00,201.60"/>
    </edge>
    <edge id="A0right0" from="A0" to="right0" priority="-1">
        <lane id="A0right0_0" index="0" speed="13.89" length="192.80" shape="207.20,198.40 400.00,198.40"/>
    </edge>
    <edge id="A0top0" from="A0" to="top0" priority="-1">
        <lane id="A0top0_0" index="0" speed="13.89" length="192.80" shape="201.60,207.20 201.60,400.00"/>
    </edge>
    <edge id="bottom0A0" from="bottom0" to="A0" priority="-1">
        <lane id="bottom0A0_0" index="0" speed="13.89" length="192.80" shape="201.60,0.00 201.60,192.80"/>
    </edge>
    <edge id="left0A0" from="left0" to="A0" priority="-1">
        <lane id="left0A0_0" index="0" speed="13.89" length="192.80" shape="0.00,198.40 192.80,198.40"/>
    </edge>
    <edge id="right0A0" from="right0" to="A0" priority="-1">
        <lane id="right0A0_0" index="0" speed="13.89" length="192.80" shape="400.00,201.60 207.20,201.60"/>
    </edge>
    <edge id="top0A0" from="top0" to="A0" priority="-1">
        <lane id="top0A0_0" index="0" speed="13.89" length="192.80" shape="198.40,400.00 198.40,207.20"/>
    </edge>

    <tlLogic id="A0" type="static" programID="0" offset="0">
        <phase duration="42" state="GGggrrrrGGggrrrr"/>
        <phase duration="3"  state="yyyyrrrryyyyrrrr"/>
        <phase duration="42" state="rrrrGGggrrrrGGgg"/>
        <phase duration="3"  state="rrrryyyyrrrryyyy"/>
    </tlLogic>
    <tlLogic id="bottom0" type="static" programID="0" offset="0">
        <phase duration="82" state="G"/>
        <phase duration="3"  state="y"/>
        <phase duration="5"  state="r"/>
    </tlLogic>
    <tlLogic id="left0" type="static" programID="0" offset="0">
        <phase duration="82" state="G"/>
        <phase duration="3"  state="y"/>
        <phase duration="5"  state="r"/>
    </tlLogic>
    <tlLogic id="right0" type="static" programID="0" offset="0">
        <phase duration="82" state="G"/>
        <phase duration="3"  state="y"/>
        <phase duration="5"  state="r"/>
    </tlLogic>
    <tlLogic id="top0" type="static" programID="0" offset="0">
        <phase duration="82" state="G"/>
        <phase duration="3"  state="y"/>
        <phase duration="5"  state="r"/>
    </tlLogic>

    <junction id="A0" type="traffic_light" x="200.00" y="200.00" incLanes="top0A0_0 right0A0_0 bottom0A0_0 left0A0_0" intLanes=":A0_0_0 :A0_1_0 :A0_16_0 :A0_17_0 :A0_4_0 :A0_5_0 :A0_18_0 :A0_19_0 :A0_8_0 :A0_9_0 :A0_20_0 :A0_21_0 :A0_12_0 :A0_13_0 :A0_22_0 :A0_23_0" shape="196.80,207.20 203.20,207.20 203.64,204.98 204.20,204.20 204.98,203.64 205.98,203.31 207.20,203.20 207.20,196.80 204.98,196.36 204.20,195.80 203.64,195.02 203.31,194.02 203.20,192.80 196.80,192.80 196.36,195.02 195.80,195.80 195.02,196.36 194.02,196.69 192.80,196.80 192.80,203.20 195.02,203.64 195.80,204.20 196.36,204.98 196.69,205.98">
        <request index="0"  response="0000000000000000" foes="1000010000100000" cont="0"/>
        <request index="1"  response="0100000001000000" foes="0111110001100000" cont="0"/>
        <request index="2"  response="0100001101000000" foes="0110011111100000" cont="1"/>
        <request index="3"  response="0100001000010000" foes="0100001000010000" cont="1"/>
        <request index="4"  response="0000001000000000" foes="0100001000001000" cont="0"/>
        <request index="5"  response="0000011000000111" foes="1100011000000111" cont="0"/>
        <request index="6"  response="0011011000000110" foes="0111111000000110" cont="1"/>
        <request index="7"  response="0010000100000100" foes="0010000100000100" cont="1"/>
        <request index="8"  response="0000000000000000" foes="0010000010000100" cont="0"/>
        <request index="9"  response="0100000001000000" foes="0110000001111100" cont="0"/>
        <request index="10" response="0100000001000111" foes="1110000001100111" cont="1"/>
        <request index="11" response="0001000001000010" foes="0001000001000010" cont="1"/>
        <request index="12" response="0000000000000010" foes="0000100001000010" cont="0"/>
        <request index="13" response="0000011100000110" foes="0000011111000110" cont="0"/>
        <request index="14" response="0000011001110110" foes="0000011001111110" cont="1"/>
        <request index="15" response="0000010000100001" foes="0000010000100001" cont="1"/>
    </junction>
    <junction id="bottom0" type="traffic_light" x="200.00" y="0.00" incLanes="A0bottom0_0" intLanes=":bottom0_0_0" shape="200.00,0.00 196.80,0.00 200.00,0.00" fringe="outer">
        <request index="0" response="0" foes="0" cont="0"/>
    </junction>
    <junction id="left0" type="traffic_light" x="0.00" y="200.00" incLanes="A0left0_0" intLanes=":left0_0_0" shape="0.00,200.00 0.00,203.20 0.00,200.00" fringe="outer">
        <request index="0" response="0" foes="0" cont="0"/>
    </junction>
    <junction id="right0" type="traffic_light" x="400.00" y="200.00" incLanes="A0right0_0" intLanes=":right0_0_0" shape="400.00,200.00 400.00,196.80 400.00,200.00" fringe="outer">
        <request index="0" response="0" foes="0" cont="0"/>
    </junction>
    <junction id="top0" type="traffic_light" x="200.00" y="400.00" incLanes="A0top0_0" intLanes=":top0_0_0" shape="200.00,400.00 203.20,400.00 200.00,400.00" fringe="outer">
        <request index="0" response="0" foes="0" cont="0"/>
    </junction>

    <junction id=":A0_16_0" type="internal" x="199.04" y="203.20" incLanes=":A0_2_0 bottom0A0_0" intLanes=":A0_5_0 :A0_6_0 :A0_7_0 :A0_8_0 :A0_9_0 :A0_13_0 :A0_14_0"/>
    <junction id=":A0_17_0" type="internal" x="199.20" y="206.00" incLanes=":A0_3_0 bottom0A0_0 left0A0_0 right0A0_0" intLanes=":A0_4_0 :A0_9_0 :A0_14_0"/>
    <junction id=":A0_18_0" type="internal" x="203.20" y="200.96" incLanes=":A0_6_0 left0A0_0" intLanes=":A0_1_0 :A0_2_0 :A0_9_0 :A0_10_0 :A0_11_0 :A0_12_0 :A0_13_0"/>
    <junction id=":A0_19_0" type="internal" x="206.00" y="200.80" incLanes=":A0_7_0 bottom0A0_0 left0A0_0 top0A0_0" intLanes=":A0_2_0 :A0_8_0 :A0_13_0"/>
    <junction id=":A0_20_0" type="internal" x="200.96" y="196.80" incLanes=":A0_10_0 top0A0_0" intLanes=":A0_0_0 :A0_1_0 :A0_5_0 :A0_6_0 :A0_13_0 :A0_14_0 :A0_15_0"/>
    <junction id=":A0_21_0" type="internal" x="200.80" y="194.00" incLanes=":A0_11_0 left0A0_0 right0A0_0 top0A0_0" intLanes=":A0_1_0 :A0_6_0 :A0_12_0"/>
    <junction id=":A0_22_0" type="internal" x="196.80" y="199.04" incLanes=":A0_14_0 right0A0_0" intLanes=":A0_1_0 :A0_2_0 :A0_3_0 :A0_4_0 :A0_5_0 :A0_9_0 :A0_10_0"/>
    <junction id=":A0_23_0" type="internal" x="194.00" y="199.20" incLanes=":A0_15_0 bottom0A0_0 right0A0_0 top0A0_0" intLanes=":A0_0_0 :A0_5_0 :A0_10_0"/>

    <connection from="A0bottom0" to="bottom0A0" fromLane="0" toLane="0" via=":bottom0_0_0" tl="bottom0" linkIndex="0" dir="t" state="O"/>
    <connection from="A0left0" to="left0A0" fromLane="0" toLane="0" via=":left0_0_0" tl="left0" linkIndex="0" dir="t" state="O"/>
    <connection from="A0right0" to="right0A0" fromLane="0" toLane="0" via=":right0_0_0" tl="right0" linkIndex="0" dir="t" state="O"/>
    <connection from="A0top0" to="top0A0" fromLane="0" toLane="0" via=":top0_0_0" tl="top0" linkIndex="0" dir="t" state="O"/>
    <connection from="bottom0A0" to="A0right0" fromLane="0" toLane="0" via=":A0_8_0" tl="A0" linkIndex="8" dir="r" state="O"/>
    <connection from="bottom0A0" to="A0top0" fromLane="0" toLane="0" via=":A0_9_0" tl="A0" linkIndex="9" dir="s" state="O"/>
    <connection from="bottom0A0" to="A0left0" fromLane="0" toLane="0" via=":A0_10_0" tl="A0" linkIndex="10" dir="l" state="o"/>
    <connection from="bottom0A0" to="A0bottom0" fromLane="0" toLane="0" via=":A0_11_0" tl="A0" linkIndex="11" dir="t" state="o"/>
    <connection from="left0A0" to="A0bottom0" fromLane="0" toLane="0" via=":A0_12_0" tl="A0" linkIndex="12" dir="r" state="o"/>
    <connection from="left0A0" to="A0right0" fromLane="0" toLane="0" via=":A0_13_0" tl="A0" linkIndex="13" dir="s" state="o"/>
    <connection from="left0A0" to="A0top0" fromLane="0" toLane="0" via=":A0_14_0" tl="A0" linkIndex="14" dir="l" state="o"/>
    <connection from="left0A0" to="A0left0" fromLane="0" toLane="0" via=":A0_15_0" tl="A0" linkIndex="15" dir="t" state="o"/>
    <connection from="right0A0" to="A0top0" fromLane="0" toLane="0" via=":A0_4_0" tl="A0" linkIndex="4" dir="r" state="o"/>
    <connection from="right0A0" to="A0left0" fromLane="0" toLane="0" via=":A0_5_0" tl="A0" linkIndex="5" dir="s" state="o"/>
    <connection from="right0A0" to="A0bottom0" fromLane="0" toLane="0" via=":A0_6_0" tl="A0" linkIndex="6" dir="l" state="o"/>
    <connection from="right0A0" to="A0right0" fromLane="0" toLane="0" via=":A0_7_0" tl="A0" linkIndex="7" dir="t" state="o"/>
    <connection from="top0A0" to="A0left0" fromLane="0" toLane="0" via=":A0_0_0" tl="A0" linkIndex="0" dir="r" state="O"/>
    <connection from="top0A0" to="A0bottom0" fromLane="0" toLane="0" via=":A0_1_0" tl="A0" linkIndex="1" dir="s" state="O"/>
    <connection from="top0A0" to="A0right0" fromLane="0" toLane="0" via=":A0_2_0" tl="A0" linkIndex="2" dir="l" state="o"/>
    <connection from="top0A0" to="A0top0" fromLane="0" toLane="0" via=":A0_3_0" tl="A0" linkIndex="3" dir="t" state="o"/>

    <connection from=":A0_0" to="A0left0" fromLane="0" toLane="0" dir="r" state="M"/>
    <connection from=":A0_1" to="A0bottom0" fromLane="0" toLane="0" dir="s" state="M"/>
    <connection from=":A0_2" to="A0right0" fromLane="0" toLane="0" via=":A0_16_0" dir="l" state="m"/>
    <connection from=":A0_16" to="A0right0" fromLane="0" toLane="0" dir="l" state="M"/>
    <connection from=":A0_3" to="A0top0" fromLane="0" toLane="0" via=":A0_17_0" dir="t" state="m"/>
    <connection from=":A0_17" to="A0top0" fromLane="0" toLane="0" dir="t" state="M"/>
    <connection from=":A0_4" to="A0top0" fromLane="0" toLane="0" dir="r" state="M"/>
    <connection from=":A0_5" to="A0left0" fromLane="0" toLane="0" dir="s" state="M"/>
    <connection from=":A0_6" to="A0bottom0" fromLane="0" toLane="0" via=":A0_18_0" dir="l" state="m"/>
    <connection from=":A0_18" to="A0bottom0" fromLane="0" toLane="0" dir="l" state="M"/>
    <connection from=":A0_7" to="A0right0" fromLane="0" toLane="0" via=":A0_19_0" dir="t" state="m"/>
    <connection from=":A0_19" to="A0right0" fromLane="0" toLane="0" dir="t" state="M"/>
    <connection from=":A0_8" to="A0right0" fromLane="0" toLane="0" dir="r" state="M"/>
    <connection from=":A0_9" to="A0top0" fromLane="0" toLane="0" dir="s" state="M"/>
    <connection from=":A0_10" to="A0left0" fromLane="0" toLane="0" via=":A0_20_0" dir="l" state="m"/>
    <connection from=":A0_20" to="A0left0" fromLane="0" toLane="0" dir="l" state="M"/>
    <connection from=":A0_11" to="A0bottom0" fromLane="0" toLane="0" via=":A0_21_0" dir="t" state="m"/>
    <connection from=":A0_21" to="A0bottom0" fromLane="0" toLane="0" dir="t" state="M"/>
    <connection from=":A0_12" to="A0bottom0" fromLane="0" toLane="0" dir="r" state="M"/>
    <connection from=":A0_13" to="A0right0" fromLane="0" toLane="0" dir="s" state="M"/>
    <connection from=":A0_14" to="A0top0" fromLane="0" toLane="0" via=":A0_22_0" dir="l" state="m"/>
    <connection from=":A0_22" to="A0top0" fromLane="0" toLane="0" dir="l" state="M"/>
    <connection from=":A0_15" to="A0left0" fromLane="0" toLane="0" via=":A0_23_0" dir="t" state="m"/>
    <connection from=":A0_23" to="A0left0" fromLane="0" toLane="0" dir="t" state="M"/>
    <connection from=":bottom0_0" to="bottom0A0" fromLane="0" toLane="0" dir="t" state="M"/>
    <connection from=":left0_0" to="left0A0" fromLane="0" toLane="0" dir="t" state="M"/>
    <connection from=":right0_0" to="right0A0" fromLane="0" toLane="0" dir="t" state="M"/>
    <connection from=":top0_0" to="top0A0" fromLane="0" toLane="0" dir="t" state="M"/>

</net>
